<?xml version="1.0" encoding="utf-8"?>
<feed xmlns="http://www.w3.org/2005/Atom">
    <id>urn:2024-03-12T01:17:26.109Z</id>
    <title>osmos::feed</title>
    <updated>2024-03-12T01:17:26.109Z</updated>
    <generator>osmosfeed 1.15.1</generator>
    <link rel="alternate" href="index.html"/>
    <entry>
        <title type="html"><![CDATA[Physics on AWS: Optimizing wind turbine performance using OpenFAST in a digital twin]]></title>
        <id>15b43805eef7a9a28f3253f162528f28d1cfd790</id>
        <link href="https://aws.amazon.com/blogs/architecture/physics-on-aws-optimizing-wind-turbine-performance-using-openfast-in-a-digital-twin/"/>
        <updated>2024-03-11T22:51:09.000Z</updated>
        <summary type="html"><![CDATA[Wind energy plays a crucial role in global decarbonization efforts by generating emission-free power from an abundant resource. In 2022, wind energy produced 2100 terawatt-hours (TWh) globally, or over 7% of global electricity, with expectations to reach 7400 TWh by 2030. Despite its potential, several challenges must be addressed to help meet grid decarbonization targets. […]]]></summary>
        <author>
            <name>Marco Masciola</name>
        </author>
    </entry>
    <entry>
        <title type="html"><![CDATA[LLMs become more covertly racist with human intervention]]></title>
        <id>https://www.technologyreview.com/?p=1089683</id>
        <link href="https://www.technologyreview.com/2024/03/11/1089683/llms-become-more-covertly-racist-with-human-intervention/"/>
        <updated>2024-03-11T18:35:31.000Z</updated>
        <summary type="html"><![CDATA[Since their inception, it’s been clear that large language models like ChatGPT absorb racist views from the millions of pages of the internet they are trained on. Developers have responded by trying to make them less toxic. But new research suggests that those efforts, especially as models get larger, are only curbing racist views that…]]></summary>
        <author>
            <name>James O'Donnell</name>
        </author>
    </entry>
    <entry>
        <title type="html"><![CDATA[2:00PM Water Cooler 3/11/2024]]></title>
        <id>https://www.nakedcapitalism.com/?p=268201</id>
        <link href="https://www.nakedcapitalism.com/2024/03/200pm-water-cooler-3-11-2024.html"/>
        <updated>2024-03-11T18:00:28.000Z</updated>
        <summary type="html"><![CDATA[~ Today's Water Cooler ~]]></summary>
        <author>
            <name>Lambert Strether</name>
        </author>
    </entry>
    <entry>
        <title type="html"><![CDATA[The Enduring Predictability of the Mostly Apolitical Oscars]]></title>
        <id>https://jacobin.com/2024/03/oscars-academy-awards-2024-politics-gaza/</id>
        <link href="https://jacobin.com/2024/03/oscars-academy-awards-2024-politics-gaza/"/>
        <updated>2024-03-11T17:08:40.000Z</updated>
        <summary type="html"><![CDATA[<p>What can you say about the Academy Awards ceremony this year that you don’t say every year, if you happen to keep watching? It’s one of the few American events that still reliably draws a mass audience — the Super Bowl is another, far more popular event — and as such, it can be widely [&hellip;]</p>]]></summary>
        <author>
            <name>Jacobin</name>
        </author>
    </entry>
    <entry>
        <title type="html"><![CDATA[VR headsets can be hacked with an Inception-style attack]]></title>
        <id>https://www.technologyreview.com/?p=1089686</id>
        <link href="https://www.technologyreview.com/2024/03/11/1089686/hack-vr-headsets-inception/"/>
        <updated>2024-03-11T16:52:04.000Z</updated>
        <summary type="html"><![CDATA[In the Christoper Nolan movie Inception, Leonardo DiCaprio’s character uses technology to enter his targets’ dreams to steal information and insert false details into their subconscious.  A new “inception attack” in virtual reality works in a similar way. Researchers at the University of Chicago exploited a security vulnerability in Meta’s Quest VR system that allows…]]></summary>
        <author>
            <name>Melissa Heikkilä</name>
        </author>
    </entry>
    <entry>
        <title type="html"><![CDATA[How we sped up AWS CloudFormation deployments with optimistic stabilization]]></title>
        <id>aca9fd3bf0ae74d5710c89512f26c242d6e97df7</id>
        <link href="https://aws.amazon.com/blogs/devops/how-we-sped-up-aws-cloudformation-deployments-with-optimistic-stabilization/"/>
        <updated>2024-03-11T16:19:27.000Z</updated>
        <summary type="html"><![CDATA[Introduction AWS CloudFormation customers often inquire about the behind-the-scenes process of provisioning resources and why certain resources or stacks take longer to provision compared to the AWS Management Console or AWS Command Line Interface (AWS CLI). In this post, we will delve into the various factors affecting resource provisioning in CloudFormation, specifically focusing on resource stabilization, which allows […]]]></summary>
        <author>
            <name>Bhavani Kanneganti</name>
        </author>
    </entry>
    <entry>
        <title type="html"><![CDATA[AWS Weekly Roundup — Claude 3 Sonnet support in Bedrock, new instances, and more — March 11, 2024]]></title>
        <id>1ac173b1e82d4b67e6ec4044be26f6b60a2f29dc</id>
        <link href="https://aws.amazon.com/blogs/aws/aws-weekly-roundup-claude-3-sonnet-support-in-bedrock-new-instances-and-more-march-11-2024/"/>
        <updated>2024-03-11T16:05:01.000Z</updated>
        <summary type="html"><![CDATA[Last Friday was International Women’s Day (IWD), and I want to take a moment to appreciate the amazing ladies in the cloud computing space that are breaking the glass ceiling by reaching technical leadership positions and inspiring others to go and build, as our CTO Werner Vogels says. Last week’s launches Here are some launches […]]]></summary>
        <author>
            <name>Marcia Villalba</name>
        </author>
    </entry>
    <entry>
        <title type="html"><![CDATA[Is “greedflation” over?]]></title>
        <id>http://rwer.wordpress.com/?p=45202</id>
        <link href="https://rwer.wordpress.com/2024/03/11/is-greedflation-over/"/>
        <updated>2024-03-11T15:11:37.000Z</updated>
        <summary type="html"><![CDATA[from Dean Baker Peter Coy used his column yesterday to beg President Biden not to use the term “greedflation” to explain the runup in inflation since the pandemic. I am sympathetic to much of his argument, most importantly, the idea that corporations suddenly turned greedy is a bit far out. As Coy notes, corporations are always greedy. […]]]></summary>
        <author>
            <name>deanbaker1</name>
        </author>
    </entry>
    <entry>
        <title type="html"><![CDATA[Jamaal Bowman Deserves the Left’s Support]]></title>
        <id>https://jacobin.com/2024/03/jamaal-bowman-cease-fire-gaza-reelection/</id>
        <link href="https://jacobin.com/2024/03/jamaal-bowman-cease-fire-gaza-reelection/"/>
        <updated>2024-03-11T15:09:33.000Z</updated>
        <summary type="html"><![CDATA[<p>We often hear from the Left on how important it is to use our power — as voters, union members, protesters — to reject politicians who have not called for a cease-fire in Israel’s war on Gaza, which has claimed upward of thirty thousand lives. But it’s equally urgent to defend those elected officials who [&hellip;]</p>]]></summary>
        <author>
            <name>Jacobin</name>
        </author>
    </entry>
    <entry>
        <title type="html"><![CDATA[Security Week 2024 wrap up]]></title>
        <id>65eea293a5fcdf000a08b807</id>
        <link href="https://blog.cloudflare.com/security-week-2024-wrap-up"/>
        <updated>2024-03-11T14:00:05.000Z</updated>
        <summary type="html"><![CDATA[A summary of the blog posts and product announcements released during Security Week 2024]]></summary>
        <author>
            <name>Daniele Molteni</name>
        </author>
    </entry>
    <entry>
        <title type="html"><![CDATA[Tom Hayden and Jane Fonda, Capitol Hill Antiwar Lobbyists]]></title>
        <id>https://jacobin.com/2024/03/hayden-fonda-vietnam-antiwar-lobbyists/</id>
        <link href="https://jacobin.com/2024/03/hayden-fonda-vietnam-antiwar-lobbyists/"/>
        <updated>2024-03-11T13:26:28.000Z</updated>
        <summary type="html"><![CDATA[<p>Fifty years ago, New Leftist Tom Hayden and actress and activist Jane Fonda infiltrated the Capitol. Congressman Clair Burgener (R-UT) was enraged: “A course in ‘American imperialism’ taught by Miss Fonda and Mr Hayden for employees of this Congress is more than I can accept.” Burgener delivered this statement on the House floor on March [&hellip;]</p>]]></summary>
        <author>
            <name>Jacobin</name>
        </author>
    </entry>
    <entry>
        <title type="html"><![CDATA[The Download: rise of the multimodal robots, and the SEC’s new climate rules]]></title>
        <id>https://www.technologyreview.com/?p=1089669</id>
        <link href="https://www.technologyreview.com/2024/03/11/1089669/the-download-rise-of-the-multimodal-robots-and-the-secs-new-climate-rules/"/>
        <updated>2024-03-11T13:10:00.000Z</updated>
        <summary type="html"><![CDATA[This is today’s edition of The Download, our weekday newsletter that provides a daily dose of what’s going on in the world of technology. An OpenAI spinoff has built an AI model that helps robots learn tasks like humans The news: In the summer of 2021, OpenAI quietly shuttered its mulrobotics team, announcing that progress was being…]]></summary>
        <author>
            <name>Rhiannon Williams</name>
        </author>
    </entry>
    <entry>
        <title type="html"><![CDATA[An OpenAI spinoff has built an AI model that helps robots learn tasks like humans]]></title>
        <id>https://www.technologyreview.com/?p=1089653</id>
        <link href="https://www.technologyreview.com/2024/03/11/1089653/an-openai-spinoff-has-built-an-ai-model-that-helps-robots-learn-tasks-like-humans/"/>
        <updated>2024-03-11T13:00:00.000Z</updated>
        <summary type="html"><![CDATA[In the summer of 2021, OpenAI quietly shuttered its robotics team, announcing that progress was being stifled by a lack of data necessary to train robots in how to move and reason using artificial intelligence.  Now three of OpenAI’s early research scientists say the startup they spun off in 2017, called Covariant, has solved that…]]></summary>
        <author>
            <name>James O'Donnell</name>
        </author>
    </entry>
    <entry>
        <title type="html"><![CDATA[Aligning With Washington Is Bad News for Argentina]]></title>
        <id>https://jacobin.com/2024/03/argentina-economy-debt-us-hegemony/</id>
        <link href="https://jacobin.com/2024/03/argentina-economy-debt-us-hegemony/"/>
        <updated>2024-03-11T11:36:42.000Z</updated>
        <summary type="html"><![CDATA[<p>Argentina’s president Javier Milei is a throwback. He sports muttonchops and a leather jacket. His favorite band is the Rolling Stones. He is a Cold Warrior, spouting anachronistic anti-communist rhetoric that doesn’t correspond to the geopolitical dynamics of the twenty-first century. But the realities of Argentine and global economics have not deterred Milei from pursuing [&hellip;]</p>]]></summary>
        <author>
            <name>Jacobin</name>
        </author>
    </entry>
    <entry>
        <title type="html"><![CDATA[Links 3/11/2024]]></title>
        <id>https://www.nakedcapitalism.com/?p=268162</id>
        <link href="https://www.nakedcapitalism.com/2024/03/links-3-11-2024.html"/>
        <updated>2024-03-11T10:55:18.000Z</updated>
        <summary type="html"><![CDATA[Our sizzling hot daily links]]></summary>
        <author>
            <name>Lambert Strether</name>
        </author>
    </entry>
    <entry>
        <title type="html"><![CDATA[Financial Crises and Tax Havens]]></title>
        <id>https://www.nakedcapitalism.com/?p=268184</id>
        <link href="https://www.nakedcapitalism.com/2024/03/financial-crises-and-tax-havens.html"/>
        <updated>2024-03-11T10:50:27.000Z</updated>
        <summary type="html"><![CDATA[Tax havens not only facilitate tax evasion and corruption in ‘normal times’, they also harbour funds during economic crises, slowing down recovery.]]></summary>
        <author>
            <name>Lambert Strether</name>
        </author>
    </entry>
    <entry>
        <title type="html"><![CDATA[The Egalitarian Radicalism of Thomas Müntzer]]></title>
        <id>https://jacobin.com/2024/03/thomas-muntzer-peasants-war-egalitarian-radicalism/</id>
        <link href="https://jacobin.com/2024/03/thomas-muntzer-peasants-war-egalitarian-radicalism/"/>
        <updated>2024-03-11T10:22:46.000Z</updated>
        <summary type="html"><![CDATA[<p>When the princes finally captured Thomas Müntzer, they put the thumbscrews on him. Shortly before he was beheaded on May 27, 1525, he confessed under torture to starting the Peasants’ War “in order that Christianity should make all men equal.” Any noble who refused to share his goods “amongst everyone according to their need” was [&hellip;]</p>]]></summary>
        <author>
            <name>Jacobin</name>
        </author>
    </entry>
    <entry>
        <title type="html"><![CDATA[From Isolation to Containment: Washington’s Economic War Against Russia Gets a Rebrand]]></title>
        <id>https://www.nakedcapitalism.com/?p=268099</id>
        <link href="https://www.nakedcapitalism.com/2024/03/from-isolation-to-containment-washingtons-economic-war-against-russia-gets-a-rebrand.html"/>
        <updated>2024-03-11T10:00:36.000Z</updated>
        <summary type="html"><![CDATA[Foreign Affiars recycles a 75-year-old strategy from George Kennan that no longer fits the geopolitical realities of the world in 2024.]]></summary>
        <author>
            <name>Conor Gallagher</name>
        </author>
    </entry>
    <entry>
        <title type="html"><![CDATA[How the Left Fell in and Out of Love With Free Trade]]></title>
        <id>https://jacobin.com/2024/03/left-free-trade-british-empire-wto/</id>
        <link href="https://jacobin.com/2024/03/left-free-trade-british-empire-wto/"/>
        <updated>2024-03-11T09:25:39.000Z</updated>
        <summary type="html"><![CDATA[<p>In November and December of 1999, at least forty thousand protestors descended on downtown Seattle to protest the World Trade Organization (WTO) conference. Some dressed as or brandished images of sea turtles, which symbolized the WTO’s overturning of environmental regulations against trawling. Alongside them marched representatives of the steelworkers’ unions, who protested the dumping of [&hellip;]</p>]]></summary>
        <author>
            <name>Jacobin</name>
        </author>
    </entry>
    <entry>
        <title type="html"><![CDATA[Market  Gives Vote of No Confidence in Latest Israel Genocide, Um, War-Financing Bonds]]></title>
        <id>https://www.nakedcapitalism.com/?p=268160</id>
        <link href="https://www.nakedcapitalism.com/2024/03/market-gives-vote-of-no-confidence-in-latest-israel-genocide-um-war-financing-bonds.html"/>
        <updated>2024-03-11T08:22:00.000Z</updated>
        <summary type="html"><![CDATA[High interest rates for Israeli bond offerings, plus mumble-shuffle by manager Goldman and the SEC, confirm investor doubts about its prospects]]></summary>
        <author>
            <name>Yves Smith</name>
        </author>
    </entry>
    <entry>
        <title type="html"><![CDATA[Debt Forgiveness in the Bronze Age]]></title>
        <id>https://www.counterpunch.org/?p=315751</id>
        <link href="https://www.counterpunch.org/2024/03/11/debt-forgiveness-in-the-bronze-age/"/>
        <updated>2024-03-11T06:00:49.000Z</updated>
        <summary type="html"><![CDATA[Civilization’s earliest written records, from Sumer in the third millennium BC, provide the best evidence for civilization’s monetized debt relations “in the beginning.” Two categories of debt existed, each associated with its own designated monetary commodity. Business obligations owed by traders and entrepreneurial managers were denominated in silver, above all those associated with foreign trade. The agrarian economy operated on credit denominated in barley units, assigned a value equal to the silver shekel in order to strike a common measure. More
The post Debt Forgiveness in the Bronze Age appeared first on CounterPunch.org.]]></summary>
        <author>
            <name>Michael Hudson</name>
        </author>
    </entry>
    <entry>
        <title type="html"><![CDATA[The Gilded Age Then, the Gilded Age Now]]></title>
        <id>https://www.counterpunch.org/?p=315779</id>
        <link href="https://www.counterpunch.org/2024/03/11/the-gilded-age-then-the-gilded-age-now/"/>
        <updated>2024-03-11T05:58:48.000Z</updated>
        <summary type="html"><![CDATA[How many people in India are going hungry? Researchers working on the Global Hunger Index are currently tracking 125 nations across the world. Exactly 110 of those nations, those researchers reported last fall, are suffering less hunger than India. But India, by contrast, is doing quite well on the gluttony front. Few nations today can  More
The post The Gilded Age Then, the Gilded Age Now appeared first on CounterPunch.org.]]></summary>
        <author>
            <name>Sam Pizzigati</name>
        </author>
    </entry>
    <entry>
        <title type="html"><![CDATA[State-Sponsored Kidnapping and Extraordinary Rendition Threatens Yellowstone Buffalo]]></title>
        <id>https://www.counterpunch.org/?p=315766</id>
        <link href="https://www.counterpunch.org/2024/03/11/state-sponsored-kidnapping-and-extraordinary-rendition-threatens-yellowstone-buffalo/"/>
        <updated>2024-03-11T05:56:38.000Z</updated>
        <summary type="html"><![CDATA[Yellowstone’s wild, free-roaming buffalo are wildlife. The biggest threat to wild buffalo today is settler-colonialism, domestication, and plantation farming for trophy hunters. Unfortunately, 21st-Century American colonial adventures persist in the Greater Yellowstone Ecosystem. In February 2024, 141 wild Yellowstone buffalo were kidnapped, loaded into trucks, and relocated to the Fort Peck Indian Reservation, some 500  More
The post State-Sponsored Kidnapping and Extraordinary Rendition Threatens Yellowstone Buffalo appeared first on CounterPunch.org.]]></summary>
        <author>
            <name>Steve Kelly</name>
        </author>
    </entry>
    <entry>
        <title type="html"><![CDATA[Montanans Oppose Catbox Cleanups of Superfund Sites]]></title>
        <id>https://www.counterpunch.org/?p=315857</id>
        <link href="https://www.counterpunch.org/2024/03/11/montanans-oppose-catbox-cleanups-of-superfund-sites/"/>
        <updated>2024-03-11T05:55:58.000Z</updated>
        <summary type="html"><![CDATA[Montanan’s 1972 Constitution is very direct about what it means when it comes to pollution. All Montanans are guaranteed the “inalienable right” to “clean and healthful environment.”  Equally unambiguous is the mandate that “all lands disturbed by the taking of natural resources shall be reclaimed.”  And finally, “the state and each person shall maintain and improve a clean and  More
The post Montanans Oppose Catbox Cleanups of Superfund Sites appeared first on CounterPunch.org.]]></summary>
        <author>
            <name>George Ochenski</name>
        </author>
    </entry>
    <entry>
        <title type="html"><![CDATA[The Stones Cry Out Delegation: From the Ground in Palestine to the US Government and Churches]]></title>
        <id>https://www.counterpunch.org/?p=315859</id>
        <link href="https://www.counterpunch.org/2024/03/11/the-stones-cry-out-delegation-from-the-ground-in-palestine-to-the-us-government-and-churches/"/>
        <updated>2024-03-11T05:55:25.000Z</updated>
        <summary type="html"><![CDATA[“Nothing has changed, and everything has changed.”  These are the words of Sam Bahour, a Palestinian-American businessman and activist who spoke to our delegation. Nothing has changed because the deadly oppression of the Palestinian people has been ongoing for 76 years. Everything has changed since October 7, the day Hamas fighters pierced the walls of the concentration camp called Gaza.  As followers of Jesus,  More
The post The Stones Cry Out Delegation: From the Ground in Palestine to the US Government and Churches appeared first on CounterPunch.org.]]></summary>
        <author>
            <name>Wendell Griffen</name>
        </author>
    </entry>
    <entry>
        <title type="html"><![CDATA[A New Life for Mexico’s Oldest Union]]></title>
        <id>https://www.counterpunch.org/?p=315861</id>
        <link href="https://www.counterpunch.org/2024/03/11/a-new-life-for-mexicos-oldest-union/"/>
        <updated>2024-03-11T05:55:19.000Z</updated>
        <summary type="html"><![CDATA[Humberto Montes de Oca is the Secretary for Internal Relations of the Mexican Union of Electrical Workers (SME). He was originally a working-class art student who became active in the left-wing political movements of the period of Mexico’s Dirty War (1970s to early 1980s). He joined the SME as a political act to become part  More
The post A New Life for Mexico’s Oldest Union appeared first on CounterPunch.org.]]></summary>
        <author>
            <name>David Bacon</name>
        </author>
    </entry>
    <entry>
        <title type="html"><![CDATA[A Play for Our Time: Ionesco’s “Rhinoceros”]]></title>
        <id>https://www.counterpunch.org/?p=315763</id>
        <link href="https://www.counterpunch.org/2024/03/11/a-play-for-our-time-ionescos-rhinoceros/"/>
        <updated>2024-03-11T05:50:55.000Z</updated>
        <summary type="html"><![CDATA[When theatergoers in Dusseldorf, Germany sat down one October evening in 1959 to watch the world premiere of Eugene Ionesco’s latest work, they witnessed a strange, new kind of play: rhinoceroses charging through a provincial European town, townspeople themselves turning into rhinoceroses, a whole society transforming rapidly from human to beast, and, at the end,  More
The post A Play for Our Time: Ionesco’s “Rhinoceros” appeared first on CounterPunch.org.]]></summary>
        <author>
            <name>Andrew Moss</name>
        </author>
    </entry>
    <entry>
        <title type="html"><![CDATA[The Campaign to Free Assange: Reflections on Night Falls]]></title>
        <id>https://www.counterpunch.org/?p=315805</id>
        <link href="https://www.counterpunch.org/2024/03/11/the-campaign-to-free-assange-reflections-on-night-falls/"/>
        <updated>2024-03-11T05:45:00.000Z</updated>
        <summary type="html"><![CDATA[The town hall meeting is the last throbbing reminder of the authentic demos.  People gather; debates held.  Views converge; others diverge.  Speakers are invited to stir the invitees, provoke the grey cells.  Till artificial intelligence banishes such gatherings, and the digital cosmos swallows us whole, cherish these events. And there was much to cherish about  More
The post The Campaign to Free Assange: Reflections on Night Falls appeared first on CounterPunch.org.]]></summary>
        <author>
            <name>Binoy Kampmark</name>
        </author>
    </entry>
    <entry>
        <title type="html"><![CDATA[A Brief History of The Spark: A Journal of Contemporary Anarchist Thought]]></title>
        <id>https://www.counterpunch.org/?p=315760</id>
        <link href="https://www.counterpunch.org/2024/03/11/a-brief-history-of-the-spark-a-journal-of-contemporary-anarchist-thought/"/>
        <updated>2024-03-11T05:33:25.000Z</updated>
        <summary type="html"><![CDATA[The first issue of The Spark: A Journal of Contemporary Anarchist Thought was published in July, 1983, and the final issue in June 1984. A total of five issues were published. A list of the writers includes: Steve O’Keefe, editor & publisher Patrick Michael, staff Rosemary Fury, staff Bob Black Karl Hess Kerry Wendell Thornley  More
The post A Brief History of The Spark: A Journal of Contemporary Anarchist Thought appeared first on CounterPunch.org.]]></summary>
        <author>
            <name>Steve O’Keefe</name>
        </author>
    </entry>
    <entry>
        <title type="html"><![CDATA[Michael Hudson: Marxism, Economic Parasites, and Debt Cancellation]]></title>
        <id>https://www.nakedcapitalism.com/?p=268083</id>
        <link href="https://www.nakedcapitalism.com/2024/03/michael-hudson-marxism-economic-parasites-and-debt-cancellation.html"/>
        <updated>2024-03-11T05:32:03.000Z</updated>
        <summary type="html"><![CDATA[Michael Hudson in a bracing talk, including history of crises, the role of debt, and how ancient Greek and Roman law promoted inequality]]></summary>
        <author>
            <name>Yves Smith</name>
        </author>
    </entry>
    <entry>
        <title type="html"><![CDATA[Economy Created 275,000 Jobs in February, Unemployment Edged Up to 3.9 Percent]]></title>
        <id>https://www.counterpunch.org/?p=315807</id>
        <link href="https://www.counterpunch.org/2024/03/11/economy-created-275000-jobs-in-february-unemployment-edged-up-to-3-9-percent/"/>
        <updated>2024-03-11T04:52:09.000Z</updated>
        <summary type="html"><![CDATA[The economy continued to create jobs at a rapid pace last month, with payroll employment up by 275,000. However, any concerns about an excessive pace of job growth are alleviated by the fact that the prior two months’ total was revised down by 167,000. This puts the three-month average at 265,000. The household survey showed  More
The post Economy Created 275,000 Jobs in February, Unemployment Edged Up to 3.9 Percent appeared first on CounterPunch.org.]]></summary>
        <author>
            <name>Dean Baker</name>
        </author>
    </entry>
    <entry>
        <title type="html"><![CDATA[Biden’s Last Chance]]></title>
        <id>https://www.counterpunch.org/?p=315764</id>
        <link href="https://www.counterpunch.org/2024/03/11/bidens-last-chance/"/>
        <updated>2024-03-11T04:03:30.000Z</updated>
        <summary type="html"><![CDATA[Prologue I watched President Joe Biden delivering his March 7, 2024 State of the Union speech. “My lifetime,” he said, “has taught me to embrace freedom and democracy. A future based on the core values that have defined America: honesty, decency, dignity, equality. To respect everyone. To give everyone a fair shot. To give hate  More
The post Biden’s Last Chance appeared first on CounterPunch.org.]]></summary>
        <author>
            <name>Evaggelos Vallianatos</name>
        </author>
    </entry>
    <entry>
        <title type="html"><![CDATA[On the State of the Union Speech: What Biden Left Out]]></title>
        <id>https://www.nakedcapitalism.com/?p=268129</id>
        <link href="https://www.nakedcapitalism.com/2024/03/on-the-state-of-the-union-speech-what-biden-left-out.html"/>
        <updated>2024-03-10T20:25:39.000Z</updated>
        <summary type="html"><![CDATA[This is a post about nothing; or rather the nothing that is where one would expect a something to appear]]></summary>
        <author>
            <name>Lambert Strether</name>
        </author>
    </entry>
    <entry>
        <title type="html"><![CDATA[Announcing 2024 Water Cooler Fundraiser!]]></title>
        <id>https://www.nakedcapitalism.com/?p=268102</id>
        <link href="https://www.nakedcapitalism.com/2024/03/announcing-2024-water-cooler-fundraiser.html"/>
        <updated>2024-03-10T16:44:27.000Z</updated>
        <summary type="html"><![CDATA[My goal is 🌡️ 400 donors, an increase of 25 over last year. If you can give a lot, give a lot. If you can only give a little, give a little. (You can also pay it forward by donating on behalf of those whose circumstances do not permit them to do so, this year.)]]></summary>
        <author>
            <name>Lambert Strether</name>
        </author>
    </entry>
    <entry>
        <title type="html"><![CDATA[Middlemen Are Profiting off the Broken US Pharma System]]></title>
        <id>https://jacobin.com/2024/03/pharmacy-benefit-managers-drug-prices-congress/</id>
        <link href="https://jacobin.com/2024/03/pharmacy-benefit-managers-drug-prices-congress/"/>
        <updated>2024-03-10T16:30:33.000Z</updated>
        <summary type="html"><![CDATA[<p>Lawmakers from both parties and thirty-nine state attorneys general joined forces to stop the shadowy corporate middlemen behind rising drug prices and the death of independent pharmacies. Now these reform efforts are in peril, following nearly $50 million in industry lobbying — including tens of thousands to congressmembers who sponsored reform legislation. These largely unregulated [&hellip;]</p>]]></summary>
        <author>
            <name>Jacobin</name>
        </author>
    </entry>
    <entry>
        <title type="html"><![CDATA[Unions Can’t Be Rebuilt Piecemeal. We Need to Go Big.]]></title>
        <id>https://jacobin.com/2024/03/cio-sit-down-strikes-roosevelt-communists/</id>
        <link href="https://jacobin.com/2024/03/cio-sit-down-strikes-roosevelt-communists/"/>
        <updated>2024-03-10T14:47:02.000Z</updated>